
V1 1 0 AC 1V
R1 1 2 1k
C1 2 0 100n
.ac dec 100 1 1Meg
.end
