.subckt iop 1 2 3
.VOUT 3
Vin  0 1 5
R1   0 2 1k
R2   2 3 5k
.ends